[TITLE]
;;Project Title/Notes

[OPTIONS]
;;Option             Value
FLOW_UNITS           LPS
INFILTRATION         HORTON
FLOW_ROUTING         DYNWAVE
LINK_OFFSETS         DEPTH
MIN_SLOPE            0
ALLOW_PONDING        NO
SKIP_STEADY_STATE    NO

START_DATE           03/31/2017
START_TIME           00:00:00
REPORT_START_DATE    03/31/2017
REPORT_START_TIME    00:00:00
END_DATE             04/03/2017
END_TIME             10:00:00
SWEEP_START          01/01
SWEEP_END            12/31
DRY_DAYS             8
REPORT_STEP          00:02:00
WET_STEP             00:01:00
DRY_STEP             00:01:00
ROUTING_STEP         0:00:01 
RULE_STEP            00:00:00

INERTIAL_DAMPING     PARTIAL
NORMAL_FLOW_LIMITED  BOTH
FORCE_MAIN_EQUATION  H-W
VARIABLE_STEP        0.75
LENGTHENING_STEP     0
MIN_SURFAREA         1.14
MAX_TRIALS           8
HEAD_TOLERANCE       0.0015
SYS_FLOW_TOL         5
LAT_FLOW_TOL         5
MINIMUM_STEP         0.5
THREADS              4

[EVAPORATION]
;;Data Source    Parameters
;;-------------- ----------------
CONSTANT         0
DRY_ONLY         NO

[RAINGAGES]
;;Name           Format    Interval SCF      Source    
;;-------------- --------- ------ ------ ----------
RG               INTENSITY 0:05     1        TIMESERIES 1y              

[SUBCATCHMENTS]
;;Name           Rain Gage        Outlet           Area     %Imperv  Width    %Slope   CurbLen  SnowPack        
;;-------------- ---------------- ---------------- -------- -------- -------- -------- -------- ----------------
sub0             RG               WS02006253       0.081    93       18       0.43     0                        
sub1             RG               HS02004876       0.665    89       55       0.26     0                        
sub2             RG               HS02004862       0.932    63       61       0.12     0                        
sub3             RG               HS02004848       2.251    63       108      0.11     0                        
sub4             RG               HS02004824       2.086    89       73       0.22     0                        
sub5             RG               YSB1154          1.133    93       83       0.36     0                        
sub6             RG               YSB1138          2.585    93       123      0.45     0                        
sub7             RG               HS02004881       0.337    91       35       0.48     0                        
sub8             RG               HS02004870       0.639    91       56       0.45     0                        
sub9             RG               HS02004856       0.481    91       40       0.46     0                        
sub10            RG               HS02004837       1.103    92       81       0.42     0                        
sub11            RG               HS02004807       1.162    92       95       0.6      0                        
sub12            RG               YSB1174          0.874    87       77       1.31     0                        
sub13            RG               YSB1189          1.188    66       94       0.31     0                        
sub14            RG               HS02004799       0.952    91       72       0.52     0                        
sub15            RG               HS02004788       1.72     70       93       0.53     0                        
sub16            RG               YS6377           1.047    67       84       0.69     0                        
sub17            RG               YS6386           0.858    68       68       0.61     0                        
sub18            RG               YS6350           0.796    91       69       0.94     0                        
sub19            RG               YS6390           0.318    69       31       0.35     0                        
sub20            RG               YS6354           0.698    91       63       0.61     0                        
sub21            RG               YS6404           0.508    88       62       0.51     0                        
sub22            RG               HS02004792       6.317    57       125      4.29     0                        
sub23            RG               HS02004770       4.77     63       96       5.68     0                        
sub24            RG               YS6348           3.586    86       126      5.11     0                        
sub25            RG               YS02004309       1.295    93       100      4.92     0                        
sub26            RG               YS02004319       1.424    76       117      5.11     0                        
sub27            RG               YS6184           1.446    91       99       0.57     0                        
sub28            RG               YS6168           1.567    92       108      0.54     0                        
sub29            RG               HS02003166       1.611    92       73       0.42     0                        
sub30            RG               HS02004048       2.253    92       129      3.59     0                        
sub31            RG               HS02004038       2.12     83       109      5.37     0                        
sub32            RG               HS02003036       1.992    92       112      1.77     0                        
sub33            RG               HS02003145       1.83     87       108      3.29     0                        
sub34            RG               HS02004013       2.232    50       99       4.62     0                        
sub35            RG               HS02004018       0.347    92       58       6.07     0                        
sub36            RG               HS02004010       0.868    78       47       7.99     0                        
sub37            RG               HS02004022       0.762    61       69       2.95     0                        
sub38            RG               HS02004028       1.897    65       119      10.03    0                        
sub39            RG               HS02003160       1.064    92       87       6.48     0                        
sub40            RG               HS02003148       1.164    92       100      6.65     0                        
sub41            RG               HS02003119       1.923    84       128      4.73     0                        
sub42            RG               HS02003088       1.005    91       87       4.88     0                        
sub43            RG               HS02003122       0.814    62       78       0.66     0                        
sub44            RG               HS02003116       1.13     93       68       0.8      0                        
sub45            RG               HS02003108       1.832    83       111      0.94     0                        
sub46            RG               HS02003077       0.7      37       61       0.91     0                        
sub47            RG               HS02003136       0.764    92       63       0.89     0                        
sub48            RG               HS02003053       0.764    91       68       0.66     0                        
sub49            RG               HS02003028       0.913    92       77       0.49     0                        
sub50            RG               YS02003294       0.701    92       63       0.46     0                        
sub51            RG               YS02003306       0.472    92       59       0.49     0                        
sub52            RG               HS02003017       1.085    93       97       0.4      0                        
sub53            RG               HS02003001       1.011    92       94       0.65     0                        
sub54            RG               HS02003171       0.597    93       48       0.28     0                        
sub55            RG               YS02003281       0.798    92       74       0.28     0                        
sub56            RG               YSB1121          1.42     81       73       0.29     0                        
sub57            RG               YSB1112          0.647    69       51       0.2      0                        
sub58            RG               YSB1205          3.698    27       95       1.87     0                        
sub59            RG               YSB1218          2.291    23       78       0.47     0                        
sub60            RG               YS02001745       1.314    88       108      0.64     0                        
sub61            RG               YS02001759       1.835    83       127      0.96     0                        
sub62            RG               YS02001770       2.74     92       138      0.78     0                        
sub63            RG               YS02001664       2.27     71       138      0.8      0                        
sub64            RG               YS02001644       2.402    85       124      0.43     0                        
sub65            RG               YS02001633       2.753    87       136      0.12     0                        
sub66            RG               YS02001619       4.663    71       194      0.16     0                        
sub67            RG               YS02001887       1.86     92       104      0.78     0                        
sub68            RG               YS02006558       2.752    86       156      0.84     0                        
sub69            RG               YS02001601       3.702    85       165      0.41     0                        
sub70            RG               YS02001586       2.889    66       127      0.09     0                        
sub71            RG               YS02001915       2.615    92       128      0.4      0                        
sub72            RG               YS02001929       1.375    93       89       0.12     0                        
sub73            RG               YS02005683       0.098    79       17       0.77     0                        
sub74            RG               YS02005680       0.161    68       32       0.4      0                        
sub75            RG               YS02005677       0.221    70       37       0.82     0                        
sub76            RG               YS02005673       0.244    82       44       0.53     0                        
sub77            RG               YS02005670       0.159    83       31       0.65     0                        
sub78            RG               YS02005667       0.275    87       44       0.38     0                        
sub79            RG               YS02005664       0.258    76       34       0.39     0                        
sub80            RG               YS02005661       0.293    67       35       0.88     0                        
sub81            RG               YS02005658       0.306    63       33       0.65     0                        
sub82            RG               YS02005653       0.301    63       39       0.62     0                        
sub83            RG               YS02005650       0.337    62       32       1.54     0                        
sub84            RG               YS02005647       0.543    65       50       0.67     0                        
sub85            RG               YS02005644       0.444    76       40       0.73     0                        
sub86            RG               YS02005642       0.482    74       42       0.91     0                        
sub87            RG               YS02005639       0.3      65       31       0.91     0                        
sub88            RG               YS02005636       0.305    66       35       0.85     0                        
sub89            RG               YS02005633       0.266    69       34       1.26     0                        
sub90            RG               YS02005630       0.246    73       34       0.83     0                        
sub91            RG               YS02005627       0.181    73       34       1.09     0                        
sub92            RG               YS02005624       0.15     69       37       1.12     0                        
sub93            RG               YS02005621       0.181    69       43       1.4      0                        
sub94            RG               YS02005618       0.217    69       46       0.79     0                        
sub95            RG               YS02005615       0.151    71       27       1.46     0                        
sub96            RG               YSB1228          0.184    78       44       2.55     0                        
sub97            RG               YS02005549       0.233    39       41       6.68     0                        
sub98            RG               YS02005550       0.325    28       41       1.36     0                        
sub99            RG               YS02005553       0.352    21       34       0.69     0                        
sub100           RG               YS02005556       0.35     21       30       0.42     0                        
sub101           RG               YS02005559       0.337    21       27       0.45     0                        
sub102           RG               YS02005562       0.3      24       24       0.27     0                        
sub103           RG               YS02005565       0.475    22       33       0.3      0                        
sub104           RG               YS02005568       0.524    22       34       0.31     0                        
sub105           RG               YS02005571       0.571    19       35       0.37     0                        
sub106           RG               YS02005576       0.511    21       30       0.59     0                        
sub107           RG               YS02005579       0.708    19       38       1.13     0                        
sub108           RG               YS02005582       0.931    18       47       3.04     0                        
sub109           RG               YS02005376       1.426    36       61       4.35     0                        
sub110           RG               YS02005381       2.099    82       88       4.53     0                        
sub111           RG               YS02005595       0.857    74       38       4.21     0                        
sub112           RG               YS02005598       0.789    79       38       4.2      0                        
sub113           RG               YS02005600       0.691    86       35       4.09     0                        
sub114           RG               YS02005602       0.662    87       36       3.79     0                        
sub115           RG               WS02005154       0.736    88       40       3.41     0                        
sub116           RG               YS02005609       0.186    60       10       1.69     0                        
sub117           RG               YS02005612       0.458    59       25       2.36     0                        

[SUBAREAS]
;;Subcatchment   N-Imperv   N-Perv     S-Imperv   S-Perv     PctZero    RouteTo    PctRouted 
;;-------------- ---------- ---------- ---------- ---------- ---------- ---------- ----------
sub0             0.01       0.1        0.05       0.05       25         OUTLET    
sub1             0.01       0.1        0.05       0.05       25         OUTLET    
sub2             0.01       0.1        0.05       0.05       25         OUTLET    
sub3             0.01       0.1        0.05       0.05       25         OUTLET    
sub4             0.01       0.1        0.05       0.05       25         OUTLET    
sub5             0.01       0.1        0.05       0.05       25         OUTLET    
sub6             0.01       0.1        0.05       0.05       25         OUTLET    
sub7             0.01       0.1        0.05       0.05       25         OUTLET    
sub8             0.01       0.1        0.05       0.05       25         OUTLET    
sub9             0.01       0.1        0.05       0.05       25         OUTLET    
sub10            0.01       0.1        0.05       0.05       25         OUTLET    
sub11            0.01       0.1        0.05       0.05       25         OUTLET    
sub12            0.01       0.1        0.05       0.05       25         OUTLET    
sub13            0.01       0.1        0.05       0.05       25         OUTLET    
sub14            0.01       0.1        0.05       0.05       25         OUTLET    
sub15            0.01       0.1        0.05       0.05       25         OUTLET    
sub16            0.01       0.1        0.05       0.05       25         OUTLET    
sub17            0.01       0.1        0.05       0.05       25         OUTLET    
sub18            0.01       0.1        0.05       0.05       25         OUTLET    
sub19            0.01       0.1        0.05       0.05       25         OUTLET    
sub20            0.01       0.1        0.05       0.05       25         OUTLET    
sub21            0.01       0.1        0.05       0.05       25         OUTLET    
sub22            0.01       0.1        0.05       0.05       25         OUTLET    
sub23            0.01       0.1        0.05       0.05       25         OUTLET    
sub24            0.01       0.1        0.05       0.05       25         OUTLET    
sub25            0.01       0.1        0.05       0.05       25         OUTLET    
sub26            0.01       0.1        0.05       0.05       25         OUTLET    
sub27            0.01       0.1        0.05       0.05       25         OUTLET    
sub28            0.01       0.1        0.05       0.05       25         OUTLET    
sub29            0.01       0.1        0.05       0.05       25         OUTLET    
sub30            0.01       0.1        0.05       0.05       25         OUTLET    
sub31            0.01       0.1        0.05       0.05       25         OUTLET    
sub32            0.01       0.1        0.05       0.05       25         OUTLET    
sub33            0.01       0.1        0.05       0.05       25         OUTLET    
sub34            0.01       0.1        0.05       0.05       25         OUTLET    
sub35            0.01       0.1        0.05       0.05       25         OUTLET    
sub36            0.01       0.1        0.05       0.05       25         OUTLET    
sub37            0.01       0.1        0.05       0.05       25         OUTLET    
sub38            0.01       0.1        0.05       0.05       25         OUTLET    
sub39            0.01       0.1        0.05       0.05       25         OUTLET    
sub40            0.01       0.1        0.05       0.05       25         OUTLET    
sub41            0.01       0.1        0.05       0.05       25         OUTLET    
sub42            0.01       0.1        0.05       0.05       25         OUTLET    
sub43            0.01       0.1        0.05       0.05       25         OUTLET    
sub44            0.01       0.1        0.05       0.05       25         OUTLET    
sub45            0.01       0.1        0.05       0.05       25         OUTLET    
sub46            0.01       0.1        0.05       0.05       25         OUTLET    
sub47            0.01       0.1        0.05       0.05       25         OUTLET    
sub48            0.01       0.1        0.05       0.05       25         OUTLET    
sub49            0.01       0.1        0.05       0.05       25         OUTLET    
sub50            0.01       0.1        0.05       0.05       25         OUTLET    
sub51            0.01       0.1        0.05       0.05       25         OUTLET    
sub52            0.01       0.1        0.05       0.05       25         OUTLET    
sub53            0.01       0.1        0.05       0.05       25         OUTLET    
sub54            0.01       0.1        0.05       0.05       25         OUTLET    
sub55            0.01       0.1        0.05       0.05       25         OUTLET    
sub56            0.01       0.1        0.05       0.05       25         OUTLET    
sub57            0.01       0.1        0.05       0.05       25         OUTLET    
sub58            0.01       0.1        0.05       0.05       25         OUTLET    
sub59            0.01       0.1        0.05       0.05       25         OUTLET    
sub60            0.01       0.1        0.05       0.05       25         OUTLET    
sub61            0.01       0.1        0.05       0.05       25         OUTLET    
sub62            0.01       0.1        0.05       0.05       25         OUTLET    
sub63            0.01       0.1        0.05       0.05       25         OUTLET    
sub64            0.01       0.1        0.05       0.05       25         OUTLET    
sub65            0.01       0.1        0.05       0.05       25         OUTLET    
sub66            0.01       0.1        0.05       0.05       25         OUTLET    
sub67            0.01       0.1        0.05       0.05       25         OUTLET    
sub68            0.01       0.1        0.05       0.05       25         OUTLET    
sub69            0.01       0.1        0.05       0.05       25         OUTLET    
sub70            0.01       0.1        0.05       0.05       25         OUTLET    
sub71            0.01       0.1        0.05       0.05       25         OUTLET    
sub72            0.01       0.1        0.05       0.05       25         OUTLET    
sub73            0.01       0.1        0.05       0.05       25         OUTLET    
sub74            0.01       0.1        0.05       0.05       25         OUTLET    
sub75            0.01       0.1        0.05       0.05       25         OUTLET    
sub76            0.01       0.1        0.05       0.05       25         OUTLET    
sub77            0.01       0.1        0.05       0.05       25         OUTLET    
sub78            0.01       0.1        0.05       0.05       25         OUTLET    
sub79            0.01       0.1        0.05       0.05       25         OUTLET    
sub80            0.01       0.1        0.05       0.05       25         OUTLET    
sub81            0.01       0.1        0.05       0.05       25         OUTLET    
sub82            0.01       0.1        0.05       0.05       25         OUTLET    
sub83            0.01       0.1        0.05       0.05       25         OUTLET    
sub84            0.01       0.1        0.05       0.05       25         OUTLET    
sub85            0.01       0.1        0.05       0.05       25         OUTLET    
sub86            0.01       0.1        0.05       0.05       25         OUTLET    
sub87            0.01       0.1        0.05       0.05       25         OUTLET    
sub88            0.01       0.1        0.05       0.05       25         OUTLET    
sub89            0.01       0.1        0.05       0.05       25         OUTLET    
sub90            0.01       0.1        0.05       0.05       25         OUTLET    
sub91            0.01       0.1        0.05       0.05       25         OUTLET    
sub92            0.01       0.1        0.05       0.05       25         OUTLET    
sub93            0.01       0.1        0.05       0.05       25         OUTLET    
sub94            0.01       0.1        0.05       0.05       25         OUTLET    
sub95            0.01       0.1        0.05       0.05       25         OUTLET    
sub96            0.01       0.1        0.05       0.05       25         OUTLET    
sub97            0.01       0.1        0.05       0.05       25         OUTLET    
sub98            0.01       0.1        0.05       0.05       25         OUTLET    
sub99            0.01       0.1        0.05       0.05       25         OUTLET    
sub100           0.01       0.1        0.05       0.05       25         OUTLET    
sub101           0.01       0.1        0.05       0.05       25         OUTLET    
sub102           0.01       0.1        0.05       0.05       25         OUTLET    
sub103           0.01       0.1        0.05       0.05       25         OUTLET    
sub104           0.01       0.1        0.05       0.05       25         OUTLET    
sub105           0.01       0.1        0.05       0.05       25         OUTLET    
sub106           0.01       0.1        0.05       0.05       25         OUTLET    
sub107           0.01       0.1        0.05       0.05       25         OUTLET    
sub108           0.01       0.1        0.05       0.05       25         OUTLET    
sub109           0.01       0.1        0.05       0.05       25         OUTLET    
sub110           0.01       0.1        0.05       0.05       25         OUTLET    
sub111           0.01       0.1        0.05       0.05       25         OUTLET    
sub112           0.01       0.1        0.05       0.05       25         OUTLET    
sub113           0.01       0.1        0.05       0.05       25         OUTLET    
sub114           0.01       0.1        0.05       0.05       25         OUTLET    
sub115           0.01       0.1        0.05       0.05       25         OUTLET    
sub116           0.01       0.1        0.05       0.05       25         OUTLET    
sub117           0.01       0.1        0.05       0.05       25         OUTLET    

[INFILTRATION]
;;Subcatchment   MaxRate    MinRate    Decay      DryTime    MaxInfil  
;;-------------- ---------- ---------- ---------- ---------- ----------
sub0             20.6       3.94       6.55       7          0         
sub1             20.6       3.94       6.55       7          0         
sub2             20.6       3.94       6.55       7          0         
sub3             20.6       3.94       6.55       7          0         
sub4             20.6       3.94       6.55       7          0         
sub5             20.6       3.94       6.55       7          0         
sub6             20.6       3.94       6.55       7          0         
sub7             20.6       3.94       6.55       7          0         
sub8             20.6       3.94       6.55       7          0         
sub9             20.6       3.94       6.55       7          0         
sub10            20.6       3.94       6.55       7          0         
sub11            20.6       3.94       6.55       7          0         
sub12            20.6       3.94       6.55       7          0         
sub13            20.6       3.94       6.55       7          0         
sub14            20.6       3.94       6.55       7          0         
sub15            20.6       3.94       6.55       7          0         
sub16            20.6       3.94       6.55       7          0         
sub17            20.6       3.94       6.55       7          0         
sub18            20.6       3.94       6.55       7          0         
sub19            20.6       3.94       6.55       7          0         
sub20            20.6       3.94       6.55       7          0         
sub21            20.6       3.94       6.55       7          0         
sub22            20.6       3.94       6.55       7          0         
sub23            20.6       3.94       6.55       7          0         
sub24            20.6       3.94       6.55       7          0         
sub25            20.6       3.94       6.55       7          0         
sub26            20.6       3.94       6.55       7          0         
sub27            20.6       3.94       6.55       7          0         
sub28            20.6       3.94       6.55       7          0         
sub29            20.6       3.94       6.55       7          0         
sub30            20.6       3.94       6.55       7          0         
sub31            20.6       3.94       6.55       7          0         
sub32            20.6       3.94       6.55       7          0         
sub33            20.6       3.94       6.55       7          0         
sub34            20.6       3.94       6.55       7          0         
sub35            20.6       3.94       6.55       7          0         
sub36            20.6       3.94       6.55       7          0         
sub37            20.6       3.94       6.55       7          0         
sub38            20.6       3.94       6.55       7          0         
sub39            20.6       3.94       6.55       7          0         
sub40            20.6       3.94       6.55       7          0         
sub41            20.6       3.94       6.55       7          0         
sub42            20.6       3.94       6.55       7          0         
sub43            20.6       3.94       6.55       7          0         
sub44            20.6       3.94       6.55       7          0         
sub45            20.6       3.94       6.55       7          0         
sub46            20.6       3.94       6.55       7          0         
sub47            20.6       3.94       6.55       7          0         
sub48            20.6       3.94       6.55       7          0         
sub49            20.6       3.94       6.55       7          0         
sub50            20.6       3.94       6.55       7          0         
sub51            20.6       3.94       6.55       7          0         
sub52            20.6       3.94       6.55       7          0         
sub53            20.6       3.94       6.55       7          0         
sub54            20.6       3.94       6.55       7          0         
sub55            20.6       3.94       6.55       7          0         
sub56            20.6       3.94       6.55       7          0         
sub57            20.6       3.94       6.55       7          0         
sub58            20.6       3.94       6.55       7          0         
sub59            20.6       3.94       6.55       7          0         
sub60            20.6       3.94       6.55       7          0         
sub61            20.6       3.94       6.55       7          0         
sub62            20.6       3.94       6.55       7          0         
sub63            20.6       3.94       6.55       7          0         
sub64            20.6       3.94       6.55       7          0         
sub65            20.6       3.94       6.55       7          0         
sub66            20.6       3.94       6.55       7          0         
sub67            20.6       3.94       6.55       7          0         
sub68            20.6       3.94       6.55       7          0         